test/test_files/matlab_test_files/d_anderson_farmer_mdl.m
Bus.con = [ ...
  1  20  1  0  2  1;
  2  20  1  0  1  1;
  3  20  1  0  1  1;
  4  20  1  0  3  1;
  5  400  1  0  2  1;
  6  400  1  0  1  1;
  7  400  1  0  1  1;
  8  400  1  0  1  1;
  9  400  1  0  3  1;
 ];

Line.con = [ ...
  5  7  100  400  60  0  0  0.003618  0.024241  1.767004  0  0  0  0  0  1;
  6  7  100  400  60  0  0  0.003618  0.024241  1.767004  0  0  0  0  0  1;
  5  6  100  400  60  0  0  0.003226  0.020851  1.449019  0  0  0  0  0  1;
  7  8  100  400  60  0  0  0.003226  0.069502  1.449019  0  0  0  0  0  1;
  7  8  100  400  60  0  0  0.003226  0.069502  1.449019  0  0  0  0  0  1;
  8  9  100  400  60  0  0  0.003226  0.069502  1.449019  0  0  0  0  0  1;
  8  9  100  400  60  0  0  0.003226  0.069502  1.449019  0  0  0  0  0  1;
  1  5  100  20  60  0  0.05  0  0.0002  0  0  0  0  0  0  1;
  2  6  100  20  60  0  0.05  0  0.0066  0  0  0  0  0  0  1;
  3  8  100  20  60  0  0.05  0  0.002  0  0  0  0  0  0  1;
  4  9  100  20  60  0  0.05  0  0.000143  0  0  0  0  0  0  1;
 ];

Shunt.con = [ ...
  7  100  400  60  0  8.099986  1;
 ];

Fault.con = [ ...
  6  100  400  60  0  0.06666667  0  1e-06;
 ];

SW.con = [ ...
  4  100  20  1.02  0  1.5  -1.5  1.1  0.9  0.8  1  1  1;
 ];

PV.con = [ ...
  1  100  20  410  1.03  0.8  -0.2  1.1  0.9  1  1;
  2  100  20  12  1.05  0.8  -0.2  1.1  0.9  1  1;
  3  100  20  37.801  1.032  0.8  -0.2  1.1  0.9  1  1;
 ];

PQ.con = [ ...
  5  100  400  400  80  1.2  0.8  1  1;
  7  100  400  27.5  5.5  1.2  0.8  1  1;
  8  100  400  17.5  2  1.2  0.8  1  1;
  9  100  400  500  120  1.2  0.8  1  1;
  6  100  400  5  1  1.2  0.8  1  1;
 ];

Pl.con = [ ...
  5  100  400  60  0  0  100  0  0  100  1  1;
  9  100  400  60  0  0  100  0  0  100  1  1;
  6  100  400  60  0  100  0  0  100  0  1  1;
  8  100  400  60  0  100  0  0  100  0  1  1;
  7  100  400  60  0  100  0  0  100  0  1  1;
 ];

Syn.con = [ ...
  1  60000  20  60  2  0  0.0046  2.11  0.28  0.215  4.2  0.032  2.02  0.49  0.215  0.565  0.062  4.636  2  0  0  1  1  0  0  0  1  1;
  2  1300  20  60  6  0  0.0019  2.183  0.413  0.339  5.69  0.041  2.157  1.285  0.332  1.5  0.144  5.284  2  0  0  1  1  0  0  0  1  1;
  3  4400  20  60  6  0  0.0031  1.7  0.245  0.185  5.9  0.033  1.64  0.38  0.185  0.54  0.076  7.92  2  0  0  1  1  0  0  0  1  1;
  4  70000  20  60  3  0  0.001  1.79  0.22  0.18  4.3  0.032  1.715  0.4  0.215  0.565  0.062  7.86  2  0  0  1  1  0  0  0  1  1;
 ];

Tg.con = [ ...
  1  1  1  0.04  100  0  20  0.2  0.2  0.2  0.2;
  2  1  1  0.04  100  0  20  0.2  0.2  0.2  0.2;
  3  1  1  0.04  100  0  20  0.2  0.2  0.2  0.2;
  4  1  1  0.04  100  0  20  0.2  0.2  0.2  0.2;
 ];

Exc.con = [ ...
  1  3  100  -100  100  3  1  1  0  0.4  0.04  0.0006  0.9  1;
  2  1  4  -4  200  4  1  0.006  0.06  0.0001  0.0001  0  0  1;
  3  1  4  -4  200  4  1  0.006  0.06  0.0001  0.0001  0  0  1;
  4  3  100  -100  100  3  1  1  0  0.4  0.04  0.0006  0.9  1;
 ];

Pss.con = [ ...
  2  2  1  0.1  -0.1  15  10  0.1  0.01  0.12  0.01  25  0.5  20  5  0.045  0.045  0.045  -0.045  1  0.95  0  1;
  3  2  1  0.1  -0.1  20  10  0.1  0.01  0.12  0.01  25  0.5  20  5  0.045  0.045  0.045  -0.045  1  0.95  0  1;
 ];

Bus.names = {...
  'Bus1'; 'Bus2'; 'Bus3'; 'Bus4'; 'Bus5';
  'Bus6'; 'Bus7'; 'Bus8'; 'Bus9'};
